/*---------------------------------------------------------------------------*\
  =========                 |
  \\      /  F ield         | OpenFOAM: The Open Source CFD Toolbox
   \\    /   O peration     | Website:  https://openfoam.org
    \\  /    A nd           | Version:  6
     \\/     M anipulation  |
\*---------------------------------------------------------------------------*/
Build  : 6-47517f2ebb1b
Exec   : ODE2 RKCK45
Date   : Feb 04 2023
Time   : 18:48:21
Host   : "kai"
PID    : 8158
I/O    : uncollated
Case   : /media/kai/NewDisk/kai/git/Python_utilities/ODE2_OF
nProcs : 1
sigFpe : Enabling floating point exception trapping (FOAM_SIGFPE).
fileModificationChecking : Monitoring run-time modified files using timeStampMaster (fileModificationSkew 10)
allowSystemOperations : Allowing user-supplied system call operations

// * * * * * * * * * * * * * * * * * * * * * * * * * * * * * * * * * * * * * //
Selecting ODE solver RKCK45
0.5   0.00175517
1   0.00108061
1.5   0.000141474
2   -0.000832302
2.5   -0.00160231
3   -0.00198001
3.5   -0.00187294
4   -0.00130731
4.5   -0.000421595
5   0.000567344
5.5   0.00141738
6   0.0019204
6.5   0.00195323
7   0.00150785
7.5   0.000693286
8   -0.000291022
8.5   -0.00120408
9   -0.00182235
9.5   -0.00199444
10   -0.00167822
10.5   -0.00095111
11   8.86708e-06
11.5   0.000966678
12   0.00168782
12.5   0.00199572
13   0.001815
13.5   0.00118991
14   0.000273474
14.5   -0.000709918
15   -0.0015195
15.5   -0.00195706
16   -0.00191546
16.5   -0.00140489
17   -0.00055035
17.5   0.000438942
18   0.00132077
18.5   0.00187923
19   0.00197759
19.5   0.00159177
20   0.00081622
20.5   -0.000159172
21   -0.0010956
21.5   -0.00176379
22   -0.00200014
22.5   -0.00174679
23   -0.00106576
23.5   -0.000123792
24   0.000848491
24.5   0.00161304
25   0.00198266
25.5   0.00186686
26   0.00129398
26.5   0.000404287
27   -0.000584394
27.5   -0.00143
28   -0.00192549
28.5   -0.00194956
29   -0.00149631
29.5   -0.0006767
30   0.000308592
30.5   0.00121833
31   0.00182979
31.5   0.00199325
32   0.00166869
32.5   0.000935576
33   -2.66049e-05
33.5   -0.000982277
34   -0.00169746
34.5   -0.00199704
35   -0.00180768
35.5   -0.00117574
36   -0.000255923
36.5   0.000726553
37   0.00153115
37.5   0.00196087
38   0.0019105
38.5   0.00139237
39   0.000533337
39.5   -0.00045628
40   -0.00133419
40.5   -0.00188544
41   -0.00197508
41.5   -0.00158114
42   -0.000800086
42.5   0.000176866
43   0.00111052
43.5   0.00177228
44   0.00200013
44.5   0.00173828
45   0.00105083
45.5   0.000106097
46   -0.000864617
46.5   -0.00162365
47   -0.00198515
47.5   -0.00186062
48   -0.00128055
48.5   -0.000386944
49   0.000601401
49.5   0.00144251
50   0.00193044
50.5   0.00194573
51   0.00148464
51.5   0.000660056
52   -0.000326141
52.5   -0.00123249
53   -0.00183709
53.5   -0.0019919
54   -0.00165903
54.5   -0.000919965
55   4.43447e-05
55.5   0.000997802
56   0.00170697
56.5   0.00199821
57   0.00180022
57.5   0.00116147
58   0.000238348
58.5   -0.000743135
59   -0.00154268
59.5   -0.00196452
60   -0.00190538
60.5   -0.00137974
61   -0.000516279
61.5   0.000473586
62   0.0013475
62.5   0.00189151
63   0.00197241
63.5   0.00157039
64   0.000783885
64.5   -0.00019455
65   -0.00112536
65.5   -0.00178064
66   -0.00199996
66.5   -0.00172962
67   -0.00103581
67.5   -8.83888e-05
68   0.000880678
68.5   0.00163413
69   0.00198749
69.5   0.00185424
70   0.00126701
70.5   0.000369567
71   -0.000618366
71.5   -0.00145491
72   -0.00193524
72.5   -0.00194175
73   -0.00147286
73.5   -0.000643357
74   0.000343669
74.5   0.00124656
75   0.00184425
75.5   0.0019904
76   0.00164924
76.5   0.000904279
77   -6.2085e-05
77.5   -0.00101325
78   -0.00171634
78.5   -0.00199922
79   -0.00179261
79.5   -0.00114711
80   -0.00022075
80.5   0.000759662
81   0.00155409
81.5   0.00196802
82   0.00190011
82.5   0.00136699
83   0.000499176
83.5   -0.000490858
84   -0.00136072
84.5   -0.00189743
85   -0.00196958
85.5   -0.00155952
86   -0.000767619
86.5   0.000212222
87   0.00114011
87.5   0.00178886
88   0.00199964
88.5   0.00172083
89   0.00102071
89.5   7.067e-05
90   -0.000896674
90.5   -0.00164448
91   -0.00198967
91.5   -0.00184772
92   -0.00125337
92.5   -0.000352156
93   0.000635285
93.5   0.00146719
94   0.00193988
94.5   0.00193762
95   0.00146096
95.5   0.000626603
96   -0.000361173
96.5   -0.00126053
97   -0.00185126
97.5   -0.00198875
98   -0.00163931
98.5   -0.000888517
99   7.98244e-05
99.5   0.00102863
100   0.00172559

End

